Circuit: * C:\Users\seanj\Projects\School\spring20\engr221\lab2\lab2.asc

Direct Newton iteration for .op point succeeded.

Date: Mon Apr 13 18:20:22 2020
Total elapsed time: 0.051 seconds.

tnom = 27
temp = 27
method = trap
totiter = 3
traniter = 0
tranpoints = 0
accept = 0
rejected = 0
matrix size = 4
fillins = 0
solver = Normal
Matrix Compiler1: 82 bytes object code size
Matrix Compiler2: 248 bytes object code size
